Version 4.1
SHEET 1 1352 680
WIRE 176 80 16 80
WIRE 208 80 176 80
WIRE 304 80 288 80
WIRE 592 80 304 80
WIRE 768 80 656 80
WIRE 864 80 768 80
WIRE 1008 80 928 80
WIRE 1120 80 1008 80
WIRE 768 96 768 80
WIRE 1120 96 1120 80
WIRE 176 112 176 80
WIRE 304 112 304 80
WIRE 16 128 16 80
WIRE 1008 128 1008 80
WIRE 768 176 768 160
WIRE 1120 192 1120 176
WIRE 176 208 176 176
WIRE 304 208 304 176
WIRE 304 208 176 208
WIRE 1008 208 1008 192
WIRE 16 224 16 208
WIRE 528 224 528 208
FLAG 16 224 0
FLAG 528 224 0
FLAG 1008 208 0
FLAG 304 208 0
FLAG 1120 192 0
FLAG 768 176 0
SYMBOL voltage 16 112 R0
WINDOW 123 0 0 Left 0
WINDOW 39 24 124 Left 2
SYMATTR SpiceLine Rser=50
SYMATTR InstName V1
SYMATTR Value SINE(0 0.2 915meg)
SYMBOL voltage 528 112 R0
WINDOW 123 0 0 Left 0
WINDOW 39 24 124 Left 2
SYMATTR SpiceLine Rser=50
SYMATTR InstName V2
SYMATTR Value SINE(0 0.4 915meg)
SYMBOL cap 992 128 R0
SYMATTR InstName C3
SYMATTR Value 5n
SYMBOL Contrib\\Toshiba\\diode\\JDH2S02SL 864 96 R270
WINDOW 0 32 32 VTop 2
WINDOW 3 0 32 VBottom 2
SYMATTR InstName U2
SYMBOL cap 160 112 R0
SYMATTR InstName C1
SYMATTR Value 11.9p
SYMBOL cap 288 112 R0
SYMATTR InstName C4
SYMATTR Value 4.3p
SYMBOL ind 192 96 R270
WINDOW 0 32 56 VTop 2
WINDOW 3 5 56 VBottom 2
SYMATTR InstName L1
SYMATTR Value 9.2n
SYMBOL res 1104 80 R0
SYMATTR InstName R1
SYMATTR Value 1e9
SYMBOL cap 656 64 R90
WINDOW 0 0 32 VBottom 2
WINDOW 3 32 32 VTop 2
SYMATTR InstName C2
SYMATTR Value 100p
SYMBOL Contrib\\Toshiba\\diode\\JDH2S02SL 784 160 R180
WINDOW 0 24 64 Left 2
WINDOW 3 24 0 Left 2
SYMATTR InstName U1
TEXT -16 256 Left 2 !.tran 0 100u 0 10p
