Version 4.1
SHEET 1 1408 736
WIRE 752 96 672 96
WIRE 896 96 816 96
WIRE 64 128 -48 128
WIRE 304 128 64 128
WIRE 544 128 544 -32
WIRE 544 128 384 128
WIRE 576 128 544 128
WIRE 672 128 672 96
WIRE 672 128 656 128
WIRE 896 128 896 96
WIRE 912 128 896 128
WIRE 1040 128 1040 -32
WIRE 1040 128 992 128
WIRE 1360 128 1040 128
WIRE 672 176 672 128
WIRE 688 176 672 176
WIRE 816 176 768 176
WIRE 896 176 896 128
WIRE 896 176 880 176
WIRE -48 208 -48 128
WIRE -48 304 -48 288
WIRE 480 304 480 288
WIRE 480 304 448 304
WIRE 528 304 480 304
WIRE 528 320 528 304
WIRE 448 384 448 304
WIRE 528 432 528 384
WIRE 448 528 448 448
WIRE 480 528 448 528
WIRE 528 528 528 512
WIRE 528 528 480 528
WIRE 480 544 480 528
WIRE 480 656 480 624
WIRE 800 656 480 656
WIRE 1104 656 1104 368
WIRE 1104 656 800 656
WIRE 1248 656 1248 384
WIRE 1248 656 1104 656
WIRE 800 672 800 656
FLAG 800 672 0
FLAG -48 304 0
FLAG 64 128 Vi
FLAG 1360 128 Vo
FLAG -48 544 0
FLAG 1040 -32 0
SYMBOL D315 848 176 R0
SYMATTR InstName U1
SYMBOL cap 816 80 R90
WINDOW 0 0 32 VBottom 2
WINDOW 3 32 32 VTop 2
SYMATTR InstName C1
SYMATTR Value 120f
SYMBOL ind 672 112 R90
WINDOW 0 5 56 VBottom 2
WINDOW 3 32 56 VTop 2
SYMATTR InstName L1
SYMATTR Value 0.65n
SYMBOL ind 1008 112 R90
WINDOW 0 5 56 VBottom 2
WINDOW 3 32 56 VTop 2
SYMATTR InstName L2
SYMATTR Value 0.6n
SYMBOL ind 784 160 R90
WINDOW 0 5 56 VBottom 2
WINDOW 3 32 56 VTop 2
SYMATTR InstName L3
SYMATTR Value 0.76n
SYMBOL D315 528 352 R270
SYMATTR InstName U2
SYMBOL cap 432 384 R0
SYMATTR InstName C3
SYMATTR Value 120f
SYMBOL ind 464 528 R0
SYMATTR InstName L4
SYMATTR Value 0.65n
SYMBOL ind 464 192 R0
SYMATTR InstName L5
SYMATTR Value 0.6n
SYMBOL ind 512 416 R0
SYMATTR InstName L6
SYMATTR Value 0.76n
SYMBOL cap 1088 304 R0
SYMATTR InstName C4
SYMATTR Value 10n
SYMBOL voltage -48 192 R0
WINDOW 123 0 0 Left 0
WINDOW 39 24 124 Left 2
SYMATTR InstName V1
SYMATTR Value SINE(0 5 915)
SYMBOL res 1232 288 R0
SYMATTR InstName R1
SYMATTR Value 1k
SYMBOL bv -48 448 R0
SYMATTR InstName B1
SYMATTR Value V=V(Vi)*I(V1)*(-1)
SYMBOL res 400 112 R90
WINDOW 0 0 56 VBottom 2
WINDOW 3 32 56 VTop 2
SYMATTR InstName R2
SYMATTR Value 1k
TEXT -80 696 Left 2 !.tran 1
TEXT -80 720 Left 2 !.model BAV99 D(Is=2.03n Rs=0.55 N=1.39 Cjo=1.5p M=0.33 Vj=0.75 Tt=6n Bv=100 Ibv=100u)
