* DRBE01VYM6A D model
* Model Generated by ROHM
* All Rights Reserved
* Commercial Use or Resale Restricted
* Date: 2024/04/03
.MODEL DRBE01VYM6A D
+ IS=8.8011E-6
+ N=1.0313
+ RS=0.1311
+ IKF=1.1129
+ XTI=2.0
+ EG=0.56
+ CJO=168.61E-12
+ M=0.5455
+ VJ=0.5
+ ISR=2.8111E-6
+ NR=1.0811
+ BV=6
+ TRS1=0.004